---- qbsp / ericw-tools 2.0.0-alpha8-29-gb2f23f76 ----

--- Options Summary ---
    "nocolor" was set to "1" (from command line)

Input file: C:\Users\Kitte\OneDrive\Desktop\QuakeSetup\Github\phantomoftheabyss\phantomoftheabyss-compile.map
Output file: C:\Users\Kitte\OneDrive\Desktop\QuakeSetup\Github\phantomoftheabyss\phantomoftheabyss.bsp

INFO: using built-in palette.
WARNING: phantomoftheabyss-compile.map[line 6]: Unrecognised string escape - \.
WARNING: phantomoftheabyss-compile.map[line 6]: Unrecognised string escape - \.
WARNING: phantomoftheabyss-compile.map[line 6]: Unrecognised string escape - \q
WARNING: phantomoftheabyss-compile.map[line 6]: Unrecognised string escape - \e
WARNING: phantomoftheabyss-compile.map[line 6]: Unrecognised string escape - \q
WARNING: phantomoftheabyss-compile.map[line 6]: Unrecognised string escape - \p
WARNING: phantomoftheabyss-compile.map[line 6]: Unrecognised string escape - \p
    187 entities
     22 unique textures
    250 texinfos
    638 unique planes

INFO: world extents calculated to 65373 units
     59 brushes
    431 sides
    346 side bevels

            0 texture frames added
Processing hull 0...
    58 SOLID brushes
     1 WATER | Q2_UNUSED_8 brushes
    59 brushes total
    431 visible sides
INFO: calculating BSP for 59 brushes with 431 sides
     59 brushes
    431 visible faces
    8,953 nodes
      320 expensive split nodes
    8,633 mid-split nodes
    8,954 leaves
      348 WATER | Q2_UNUSED_8 leafs
    2,744 EMPTY leafs
    5,862 SOLID leafs
    8,954 leafs total
    35 max tree height
    17 avg tree height
    754 tiny portals
    30,784 tree portals
WARNING: Reached occupant "ambient_drip" at (130 -1616 -266), no filling performed.
Leak file written to phantomoftheabyss.pts
            3 portals written to phantomoftheabyss.leak.prt
    754 tiny portals
    30,784 tree portals
WARNING: 62 sides not found (use -verbose to display)
    6,751 sides visible
    6,126 makefaces
      908 merged
    1,271 subdivided
    2,583 nodes pruned
      348 WATER | Q2_UNUSED_8 leafs
    2,744 EMPTY leafs
    3,279 SOLID leafs
    6,371 leafs total
    35 max tree height
    17 avg tree height
         3 edges degenerated
     3,509 edges added by tjunctions
     6,221 faces optimized through MWT
    16,179 triangles computed from MWT
       970 faces created via optimization of MWT triangles
    16,422 edges
     7,459 faces
Processing hull 1...
WARNING: Reached occupant "ambient_drip" at (130 -1616 -266), no filling performed.
Processing hull 2...
WARNING: Reached occupant "ambient_drip" at (130 -1616 -266), no filling performed.
WARNING: worldspawn at 0 0 0 has long value for key wad (length 772 >= 127)
LIMITS EXCEEDED ON dnode_t::mins
NOTE: limits exceeded for Quake BSP - switching to Quake BSP2
Writing phantomoftheabyss.bsp as Quake BSP2 bsp2
Wrote phantomoftheabyss.bsp

count   lump name    byte size 
      1 models               64
   1553 planes            31060
   7724 vertexes          92688
   6370 nodes            280280
    211 texinfos           8440
   7459 faces            208852
  44662 clipnodes        535944
   3093 leafs            136092
   8756 marksurfaces      35024
  16423 edges            131384
  31366 surfedges        125464
     22 textures         272972
        lightdata             0
        visdata               0
        entdata           13456

0.551s seconds elapsed


