---- qbsp / ericw-tools 2.0.0-alpha8-29-gb2f23f76 ----

--- Options Summary ---
    "nocolor" was set to "1" (from command line)

Input file: D:\Maleahs.Corner\GameDesignII\GitHubSetup\phantomoftheabyss\phantomoftheabyss-compile.map
Output file: D:\Maleahs.Corner\GameDesignII\GitHubSetup\phantomoftheabyss\phantomoftheabyss.bsp

INFO: using built-in palette.
      2 entities
      4 unique textures
    191 texinfos
    282 unique planes

INFO: world extents calculated to 4835 units
     32 brushes
    225 sides
    170 side bevels

            0 texture frames added
WARNING: unable to find texture skip
Processing hull 0...
    32 SOLID brushes
    32 brushes total
    225 visible sides
INFO: calculating BSP for 32 brushes with 225 sides
     32 brushes
    225 visible faces
    1,214 nodes
       25 expensive split nodes
    1,189 mid-split nodes
    1,215 leaves
      563 EMPTY leafs
      652 SOLID leafs
    1,215 leafs total
    22 max tree height
    13 avg tree height
    8 tiny portals
    4,913 tree portals
WARNING: Reached occupant "info_player_start" at (-32 -16 44), no filling performed.
Leak file written to phantomoftheabyss.pts
            7 portals written to phantomoftheabyss.leak.prt
    8 tiny portals
    4,913 tree portals
    1,292 sides visible
    1,292 makefaces
      299 merged
    1,014 subdivided
    147 nodes pruned
      563 EMPTY leafs
      505 SOLID leafs
    1,068 leafs total
    21 max tree height
    13 avg tree height
    2,079 edges added by tjunctions
    1,954 faces optimized through MWT
    6,060 triangles computed from MWT
      642 faces created via optimization of MWT triangles
    5,710 edges
    2,649 faces
Processing hull 1...
WARNING: Reached occupant "info_player_start" at (-32 -16 44), no filling performed.
Processing hull 2...
Writing phantomoftheabyss.bsp as Quake BSP bsp29
Wrote phantomoftheabyss.bsp

count   lump name    byte size 
      1 models               64
    502 planes            10040
   3035 vertexes          36420
   1067 nodes             25608
    157 texinfos           6280
   2649 faces             52980
   2707 clipnodes         21656
    564 leafs             15792
   3052 marksurfaces       6104
   5711 edges             22844
  11411 surfedges         45644
      4 textures          65420
        lightdata             0
        visdata               0
        entdata             240

0.111s seconds elapsed


