---- qbsp / ericw-tools 2.0.0-alpha8-29-gb2f23f76 ----

--- Options Summary ---
    "nocolor" was set to "1" (from command line)

Input file: C:\Users\Kitte\OneDrive\Desktop\QuakeSetup\Github\phantomoftheabyss\phantomoftheabyss-compile.map
Output file: C:\Users\Kitte\OneDrive\Desktop\QuakeSetup\Github\phantomoftheabyss\phantomoftheabyss.bsp

INFO: using built-in palette.
     14 entities
      7 unique textures
    373 texinfos
    610 unique planes

INFO: world extents calculated to 65373 units
     57 brushes
    421 sides
    315 side bevels

            0 texture frames added
WARNING: unable to find texture skip
WARNING: unable to find texture __TB_empty
Processing hull 0...
    57 SOLID brushes
    57 brushes total
    421 visible sides
INFO: calculating BSP for 57 brushes with 421 sides
     57 brushes
    385 visible faces
     36 non-visible faces
    6,247 nodes
       44 non-visible nodes
      127 expensive split nodes
    6,120 mid-split nodes
    6,248 leaves
    1,922 EMPTY leafs
    4,326 SOLID leafs
    6,248 leafs total
    36 max tree height
    17 avg tree height
    389 tiny portals
    22,763 tree portals
WARNING: Reached occupant "info_player_deathmatch" at (45.4647 -2028.98 -136), no filling performed.
Leak file written to phantomoftheabyss.pts
            8 portals written to phantomoftheabyss.leak.prt
    389 tiny portals
    22,763 tree portals
WARNING: 70 sides not found (use -verbose to display)
    4,251 sides visible
    4,251 makefaces
      822 merged
    2,067 subdivided
    2,382 nodes pruned
    1,922 EMPTY leafs
    1,944 SOLID leafs
    3,866 leafs total
    36 max tree height
    16 avg tree height
         2 edges degenerated
     3,856 edges added by tjunctions
     4,817 faces optimized through MWT
    13,616 triangles computed from MWT
     1,116 faces created via optimization of MWT triangles
    13,349 edges
     6,094 faces
Processing hull 1...
WARNING: Reached occupant "info_player_start" at (32 160 156), no filling performed.
Processing hull 2...
WARNING: Reached occupant "info_player_deathmatch" at (905.251 -317.211 -120), no filling performed.
Writing phantomoftheabyss.bsp as Quake BSP bsp29
Wrote phantomoftheabyss.bsp

count   lump name    byte size 
      1 models               64
   1450 planes            29000
   7127 vertexes          85524
   3865 nodes             92760
    284 texinfos          11360
   6094 faces            121880
  34963 clipnodes        279704
   1923 leafs             53844
   7394 marksurfaces      14788
  13350 edges             53400
  25966 surfedges        103864
      7 textures         109032
        lightdata             0
        visdata               0
        entdata            1279

0.536s seconds elapsed


